warn: membus.slave is deprecated. `slave` is now called `cpu_side_ports`
warn: tol2bus.master is deprecated. `master` is now called `mem_side_ports`
warn: membus.slave is deprecated. `slave` is now called `cpu_side_ports`
warn: tol2bus.slave is deprecated. `slave` is now called `cpu_side_ports`
warn: tol2bus.slave is deprecated. `slave` is now called `cpu_side_ports`
warn: tol2bus.slave is deprecated. `slave` is now called `cpu_side_ports`
warn: tol2bus.slave is deprecated. `slave` is now called `cpu_side_ports`
warn: membus.master is deprecated. `master` is now called `mem_side_ports`
Global frequency set at 1000000000000 ticks per second
warn: No dot file generated. Please install pydot to generate the dot file and pdf.
0: system.remote_gdb: listening for remote gdb on port 7000
gem5 Simulator System.  http://gem5.org
gem5 is copyrighted software; use the --copyright option for details.

gem5 version 20.1.0.2
gem5 compiled Dec  2 2021 08:51:13
gem5 started Mar 28 2023 12:47:32
gem5 executing on ba939dba6a0a, pid 39
command line: /root/ModifiedGem5ForSIMDMerge/build/ARM/gem5.opt /root/ModifiedGem5ForSIMDMerge/configs/example/se.py --caches --l2cache --mem-type SimpleMemory --cacheline_size 64 --cpu-type O3_ARM_v7a_3 --l1d-hwp-type TaggedPrefetcher --mem-size 2GB --param '
system.cpu[:].dcache.prefetcher.degree = 4
system.cpu[:].dcache.prefetch_on_access=True
system.cpu[:].isa[:].sve_vl_se = 64 / 4
from common.SpSpLatency import *
resetSpSpLatency(system.cpu[0].fuPool.FUList[4],SpSpLatencySetting(vecLen=64,KeyCombineLat=3,MatchLat=1,SEPermuteLat=1))
' --cmd /root/basicProblemExplore/build/SetOperation -o 'file SetOperation/100K_100K_100K.bin scalar 5 simd 5'

Reset SpSpLatency!
{'v': 64, 'v2': 128, 'logV': 6, 'logV2': 7, 'KeyCombineLat': 3, 'MatchLat': 1, 'SEPermuteLat': 1}
**** REAL SIMULATION ****
info: Entering event queue @ 0.  Starting simulation...
info: Increasing stack size by one page.
warn: ignoring syscall mprotect(...)
Load a: 99956
Load b: 99956
Result match
Result match
Result match
Result match
[   Union Scalar]	mean =   3.00e+05(ns)	sd =   3.26e+02(ns)	nsample =     5
[     Union SIMD]	mean =   4.03e+04(ns)	sd =   5.62e+02(ns)	nsample =     5
[Intersect Scalar]	mean =   3.00e+05(ns)	sd =   1.24e+02(ns)	nsample =     5
[ Intersect SIMD]	mean =   4.00e+04(ns)	sd =   1.19e+02(ns)	nsample =     5
[     XOR Scalar]	mean =   3.00e+05(ns)	sd =   2.60e+01(ns)	nsample =     5
[       XOR SIMD]	mean =   3.95e+04(ns)	sd =   6.75e+01(ns)	nsample =     5
[    Diff Scalar]	mean =   2.50e+05(ns)	sd =   1.37e+01(ns)	nsample =     5
[      Diff SIMD]	mean =   3.95e+04(ns)	sd =   4.08e+01(ns)	nsample =     5
Exiting @ tick 8243019500 because exiting with last active thread context

real	0m53.416s
user	0m53.386s
sys	0m0.030s
