warn: membus.slave is deprecated. `slave` is now called `cpu_side_ports`
warn: tol2bus.master is deprecated. `master` is now called `mem_side_ports`
warn: membus.slave is deprecated. `slave` is now called `cpu_side_ports`
warn: tol2bus.slave is deprecated. `slave` is now called `cpu_side_ports`
warn: tol2bus.slave is deprecated. `slave` is now called `cpu_side_ports`
warn: tol2bus.slave is deprecated. `slave` is now called `cpu_side_ports`
warn: tol2bus.slave is deprecated. `slave` is now called `cpu_side_ports`
warn: membus.master is deprecated. `master` is now called `mem_side_ports`
Global frequency set at 1000000000000 ticks per second
warn: No dot file generated. Please install pydot to generate the dot file and pdf.
0: system.remote_gdb: listening for remote gdb on port 7000
gem5 Simulator System.  http://gem5.org
gem5 is copyrighted software; use the --copyright option for details.

gem5 version 20.1.0.2
gem5 compiled Dec  2 2021 08:51:13
gem5 started Mar 27 2023 20:06:14
gem5 executing on b8347f784010, pid 610
command line: /root/ModifiedGem5ForSIMDMerge/build/ARM/gem5.opt /root/ModifiedGem5ForSIMDMerge/configs/example/se.py --caches --l2cache --mem-type SimpleMemory --cacheline_size 64 --cpu-type O3_ARM_v7a_3 --l1d-hwp-type TaggedPrefetcher --mem-size 2GB --param '
system.cpu[:].dcache.prefetcher.degree = 4
system.cpu[:].dcache.prefetch_on_access=True
system.cpu[:].isa[:].sve_vl_se = 64 / 4
from common.SpSpLatency import *
resetSpSpLatency(system.cpu[0].fuPool.FUList[4],SpSpLatencySetting(vecLen=64,KeyCombineLat=3,MatchLat=1,SEPermuteLat=1))
' --cmd /root/basicProblemExplore/build/JoinOp -o 'file JoinOp/10000_o_5000.bin scalar 0 simd 5'

Reset SpSpLatency!
{'v': 64, 'v2': 128, 'logV': 6, 'logV2': 7, 'KeyCombineLat': 3, 'MatchLat': 1, 'SEPermuteLat': 1}
**** REAL SIMULATION ****
info: Entering event queue @ 0.  Starting simulation...
info: Increasing stack size by one page.
warn: ignoring syscall mprotect(...)
Current Working Directory: "/root/basicProblemExplore/"
Attempt to open file: JoinOp/10000_o_5000.bin
Load aidx: 10000
Load aval: 10000
Load bidx: 9999
Load bval: 10000
For Join-Full-Outer - join, g_lenc = 14999
Correct!
For Join-Inner - join, g_lenc =  5000
Correct!
For Join-Outer-Ex - join, g_lenc =  9999
Correct!
For Join-Left-Ex - join, g_lenc =  5000
Correct!
For Join-Left - join, g_lenc = 10000
Correct!
[Join-Full-Outer Scalar]	mean =        nan(ns)	sd =       -nan(ns)	nsample =     0
[Join-Full-Outer SIMD]	mean =   1.16e+04(ns)	sd =   4.31e+01(ns)	nsample =     5
[Join-Inner Scalar]	mean =        nan(ns)	sd =       -nan(ns)	nsample =     0
[Join-Inner SIMD]	mean =   7.27e+03(ns)	sd =   5.52e+01(ns)	nsample =     5
[Join-Outer-Ex Scalar]	mean =        nan(ns)	sd =       -nan(ns)	nsample =     0
[Join-Outer-Ex SIMD]	mean =   9.41e+03(ns)	sd =   1.29e+01(ns)	nsample =     5
[Join-Left-Ex Scalar]	mean =        nan(ns)	sd =       -nan(ns)	nsample =     0
[Join-Left-Ex SIMD]	mean =   7.27e+03(ns)	sd =   5.42e+01(ns)	nsample =     5
[Join-Left Scalar]	mean =        nan(ns)	sd =       -nan(ns)	nsample =     0
[ Join-Left SIMD]	mean =   9.56e+03(ns)	sd =   3.04e+01(ns)	nsample =     5
Exiting @ tick 1288914500 because exiting with last active thread context

real	1m24.792s
user	1m24.628s
sys	0m0.167s
